/*--------------------------------*- C++ -*----------------------------------*\
| =========                 |                                                 |
| \\      /  F ield         | OpenFOAM: The Open Source CFD Toolbox           |
|  \\    /   O peration     | Version:  v1806                                 |
|   \\  /    A nd           | Web:      www.OpenFOAM.com                      |
|    \\/     M anipulation  |                                                 |
\*---------------------------------------------------------------------------*/
FoamFile
{
    version     2.0;
    format      ascii;
    class       dictionary;
    location    "system";
    object      setFieldsDict;
}
// * * * * * * * * * * * * * * * * * * * * * * * * * * * * * * * * * * * * * //

defaultFieldValues
(
    volScalarFieldValue alpha.gas 1
    volScalarFieldValue alpha.liquid 0
);

regions
(
    boxToCell
    {
        // box (0 0 0) (0.15 0.501 0.1);
        box (0 -2 0) (10 10 0.10515);
        fieldValues
        (
            volScalarFieldValue alpha.gas 0 //0.01
            volScalarFieldValue alpha.liquid 1 // 0.99
        );
    }
);


// ************************************************************************* //
